feeders/123Bus/ieee123_Curr_Elem.Txt

CIRCUIT ELEMENT CURRENTS

(Currents into element from indicated bus)

Power Delivery Elements

  Bus    Phase    Magnitude, A     Angle      (Real)   +j  (Imag)

ELEMENT = "Vsource.SOURCE"
150          1           9.8541 /_ -116.3 =     -4.366 +j   -8.8341
150          2           7.2691 /_ -122.9 =    -3.9449 +j   -6.1055
150          3           8.4015 /_ -113.4 =    -3.3324 +j   -7.7124
------------
150          0           9.8541 /_   63.7 =      4.366 +j    8.8341
150          0           7.2691 /_   57.1 =     3.9449 +j    6.1055
150          0           8.4015 /_   66.6 =     3.3324 +j    7.7124

ELEMENT = "Transformer.REG1A"
150          1           9.8541 /_   63.7 =      4.366 +j    8.8341
150          2           7.2691 /_   57.1 =     3.9449 +j    6.1055
150          3           8.4015 /_   66.6 =     3.3324 +j    7.7124
150          0           25.469 /_ -117.2 =    -11.643 +j   -22.652
------------
150R         1           9.4979 /_ -116.3 =    -4.2082 +j   -8.5148
150R         2           7.0063 /_ -122.9 =    -3.8023 +j   -5.8848
150R         3           8.0978 /_ -113.4 =    -3.2119 +j   -7.4336
150R         0           24.549 /_   62.8 =     11.222 +j    21.833

ELEMENT = "Line.L115"
149          1           9.4979 /_   63.7 =     4.2082 +j    8.5148
149          2           7.0063 /_   57.1 =     3.8023 +j    5.8848
149          3           8.0978 /_   66.6 =     3.2119 +j    7.4336
------------
1            1           9.4979 /_ -116.3 =    -4.2082 +j   -8.5148
1            2           7.0063 /_ -122.9 =    -3.8023 +j   -5.8848
1            3           8.0978 /_ -113.4 =    -3.2119 +j   -7.4336

ELEMENT = "Line.L1"
1            2          0.12612 /_   98.7 =  -0.019055 +j   0.12467
------------
2            2          0.12612 /_  -81.3 =   0.019056 +j  -0.12467

ELEMENT = "Line.L2"
1            3          0.65367 /_   98.0 =  -0.091421 +j   0.64725
------------
3            3          0.65367 /_  -82.0 =   0.091423 +j  -0.64725

ELEMENT = "Line.L3"
1            1           9.2881 /_   62.8 =     4.2409 +j    8.2634
1            2           6.9125 /_   56.4 =     3.8214 +j    5.7601
1            3           7.5476 /_   64.0 =     3.3034 +j    6.7864
------------
7            1           9.2881 /_ -117.2 =    -4.2409 +j   -8.2634
7            2           6.9125 /_ -123.6 =    -3.8214 +j   -5.7601
7            3           7.5476 /_ -116.0 =    -3.3034 +j   -6.7864

ELEMENT = "Line.L4"
3            3          0.25439 /_   98.1 =  -0.035865 +j   0.25185
------------
4            3          0.25439 /_  -81.9 =   0.035866 +j  -0.25185

ELEMENT = "Line.L5"
3            3          0.39928 /_   98.0 =  -0.055558 +j    0.3954
------------
5            3          0.39928 /_  -82.0 =    0.05556 +j  -0.39539

ELEMENT = "Line.L6"
5            3          0.26851 /_   98.0 =  -0.037279 +j   0.26591
------------
6            3          0.26851 /_  -82.0 =   0.037281 +j  -0.26591

ELEMENT = "Line.L7"
7            1           9.1859 /_   62.4 =     4.2517 +j    8.1427
7            2           6.9125 /_   56.4 =     3.8214 +j    5.7601
7            3           7.5476 /_   64.0 =     3.3034 +j    6.7864
------------
8            1           9.1859 /_ -117.6 =    -4.2517 +j   -8.1427
8            2           6.9125 /_ -123.6 =    -3.8214 +j   -5.7601
8            3           7.5476 /_ -116.0 =    -3.3034 +j   -6.7863

ELEMENT = "Line.L8"
8            2           0.1159 /_   96.4 =  -0.012956 +j   0.11518
------------
12           2           0.1159 /_  -83.6 =   0.012959 +j  -0.11517

ELEMENT = "Line.L9"
8            1          0.59239 /_   93.1 =  -0.032186 +j   0.59152
------------
9            1          0.59239 /_  -86.9 =   0.032189 +j  -0.59152

ELEMENT = "Line.L10"
8            1           8.6817 /_   60.4 =     4.2839 +j    7.5511
8            2           6.8241 /_   55.8 =     3.8344 +j     5.645
8            3           7.5476 /_   64.0 =     3.3034 +j    6.7863
------------
13           1           8.6817 /_ -119.6 =    -4.2839 +j   -7.5511
13           2           6.8241 /_ -124.2 =    -3.8343 +j    -5.645
13           3           7.5476 /_ -116.0 =    -3.3034 +j   -6.7863

ELEMENT = "Line.L11"
9R           1          0.35726 /_   93.0 =  -0.018798 +j   0.35676
------------
14           1          0.35725 /_  -87.0 =   0.018804 +j  -0.35675

ELEMENT = "Line.L12"
13           3          0.57404 /_   94.1 =  -0.041358 +j   0.57255
------------
34           3          0.57404 /_  -85.9 =   0.041361 +j  -0.57255

ELEMENT = "Line.L13"
13           1           2.4769 /_   79.4 =    0.45553 +j    2.4346
13           2           1.7881 /_   67.3 =    0.69035 +j    1.6494
13           3           1.8032 /_   79.1 =    0.34149 +j    1.7706
------------
18           1           2.4768 /_ -100.6 =   -0.45552 +j   -2.4346
18           2            1.788 /_ -112.7 =   -0.69034 +j   -1.6494
18           3           1.8032 /_ -100.9 =   -0.34148 +j   -1.7706

ELEMENT = "Line.L14"
14           1          0.23874 /_   93.0 =  -0.012537 +j   0.23841
------------
11           1          0.23873 /_  -87.0 =    0.01254 +j   -0.2384

ELEMENT = "Line.L15"
14           1          0.11851 /_   93.0 =  -0.0062667 +j   0.11835
------------
10           1          0.11851 /_  -87.0 =  0.0062701 +j  -0.11834

ELEMENT = "Line.L16"
15           3          0.22669 /_   94.0 =   -0.01586 +j   0.22614
------------
16           3          0.22669 /_  -86.0 =   0.015866 +j  -0.22613

ELEMENT = "Line.L17"
15           3          0.11335 /_   94.1 =  -0.0080583 +j   0.11306
------------
17           3          0.11334 /_  -85.9 =  0.0080639 +j  -0.11306

ELEMENT = "Line.L18"
18           1          0.43657 /_   87.7 =   0.017853 +j   0.43621
------------
19           1          0.43657 /_  -92.3 =  -0.017848 +j   -0.4362

ELEMENT = "Line.L19"
18           1          0.64714 /_   86.4 =   0.040829 +j   0.64586
18           2          0.22709 /_   93.1 =  -0.012088 +j   0.22676
18           3          0.66086 /_   92.1 =  -0.024754 +j   0.66039
------------
21           1          0.64714 /_  -93.6 =  -0.040825 +j  -0.64585
21           2          0.22708 /_  -86.9 =   0.012093 +j  -0.22676
21           3          0.66085 /_  -87.9 =   0.024757 +j  -0.66039

ELEMENT = "Line.L20"
19           1          0.21706 /_   87.6 =  0.0092084 +j   0.21686
------------
20           1          0.21705 /_  -92.4 =  -0.0092019 +j  -0.21685

ELEMENT = "Line.L21"
21           2          0.22706 /_   93.1 =  -0.012117 +j   0.22673
------------
22           2          0.22705 /_  -86.9 =   0.012127 +j  -0.22672

ELEMENT = "Line.L22"
21           1          0.64714 /_   86.4 =   0.040825 +j   0.64585
21           2      3.4591E-005 /_   46.0 =  2.4017E-005 +j 2.4894E-005
21           3          0.66085 /_   92.1 =  -0.024757 +j   0.66039
------------
23           1          0.64713 /_  -93.6 =  -0.040821 +j  -0.64585
23           2      2.9124E-005 /_ -134.0 =  -2.0218E-005 +j -2.0963E-005
23           3          0.66085 /_  -87.9 =    0.02476 +j  -0.66039

ELEMENT = "Line.L23"
23           3          0.22051 /_   92.2 =  -0.0086384 +j   0.22034
------------
24           3           0.2205 /_  -87.8 =  0.0086484 +j  -0.22033

ELEMENT = "Line.L24"
23           1          0.64713 /_   86.4 =   0.040821 +j   0.64585
23           2      2.9124E-005 /_   46.0 =  2.0218E-005 +j 2.0963E-005
23           3          0.44034 /_   92.1 =  -0.016122 +j   0.44005
------------
25           1          0.64713 /_  -93.6 =  -0.040817 +j  -0.64584
25           2      2.3095E-005 /_ -134.0 =  -1.6031E-005 +j -1.6625E-005
25           3          0.44034 /_  -87.9 =   0.016125 +j  -0.44004

ELEMENT = "Line.L25"
25R          1          0.21492 /_   86.2 =   0.014243 +j   0.21445
25R          3          0.22023 /_   92.1 =  -0.0081475 +j   0.22008
------------
26           1          0.21491 /_  -93.8 =  -0.014236 +j  -0.21444
26           3          0.22022 /_  -87.9 =  0.0081531 +j  -0.22007

ELEMENT = "Line.L26"
25           1          0.42952 /_   86.5 =   0.026396 +j   0.42871
25           2      2.3095E-005 /_   46.0 =  1.6031E-005 +j 1.6625E-005
25           3          0.22011 /_   92.1 =  -0.0079772 +j   0.21996
------------
28           1          0.42952 /_  -93.5 =  -0.026393 +j  -0.42871
28           2      1.8702E-005 /_ -134.0 =  -1.2981E-005 +j -1.3464E-005
28           3          0.22011 /_  -87.9 =  0.0079795 +j  -0.21996

ELEMENT = "Line.L27"
26           1          0.21491 /_   86.2 =   0.014236 +j   0.21444
26           3      7.0123E-006 /_   51.2 =  4.3957E-006 +j 5.4635E-006
------------
27           1          0.21491 /_  -93.8 =  -0.014231 +j  -0.21443
27           3      7.1054E-015 /_    0.0 =  7.1054E-015 +j         0

ELEMENT = "Line.L28"
26           3          0.22022 /_   92.1 =  -0.0081575 +j   0.22007
------------
31           3          0.22021 /_  -87.9 =  0.0081616 +j  -0.22006

ELEMENT = "Line.L29"
27           1          0.21491 /_   86.2 =   0.014231 +j   0.21443
------------
33           1          0.21489 /_  -93.8 =  -0.014221 +j  -0.21442

ELEMENT = "Line.L30"
28           1          0.21346 /_   86.4 =   0.013525 +j   0.21303
28           2      1.8702E-005 /_   46.0 =  1.2981E-005 +j 1.3464E-005
28           3          0.22011 /_   92.1 =  -0.0079795 +j   0.21996
------------
29           1          0.21345 /_  -93.6 =   -0.01352 +j  -0.21302
29           2      1.2106E-005 /_ -133.9 =  -8.4015E-006 +j -8.7154E-006
29           3           0.2201 /_  -87.9 =   0.007983 +j  -0.21996

ELEMENT = "Line.L31"
29           1      1.3071E-005 /_   52.1 =  8.0313E-006 +j 1.0313E-005
29           2      1.2106E-005 /_   46.1 =  8.4015E-006 +j 8.7154E-006
29           3           0.2201 /_   92.1 =  -0.007983 +j   0.21996
------------
30           1      4.7539E-006 /_ -127.9 =  -2.9207E-006 +j -3.7508E-006
30           2       4.403E-006 /_ -133.9 =  -3.0556E-006 +j -3.1701E-006
30           3           0.2201 /_  -87.9 =   0.007987 +j  -0.21995

ELEMENT = "Line.L32"
30           1      4.7539E-006 /_   52.1 =  2.9207E-006 +j 3.7508E-006
30           2       4.403E-006 /_   46.1 =  3.0556E-006 +j 3.1701E-006
30           3      3.7887E-006 /_   52.3 =  2.3177E-006 +j 2.9971E-006
------------
250          1      2.5619E-014 /_   33.7 =  2.1316E-014 +j 1.4211E-014
250          2      4.6897E-014 /_   65.4 =  1.954E-014 +j 4.2633E-014
250          3      2.9296E-014 /_  104.0 =  -7.1054E-015 +j 2.8422E-014

ELEMENT = "Line.L33"
31           3          0.11011 /_   92.1 =   -0.00403 +j   0.11004
------------
32           3          0.11011 /_  -87.9 =  0.0040354 +j  -0.11003

ELEMENT = "Line.L34"
34           3          0.34005 /_   94.0 =  -0.023917 +j    0.3392
------------
15           3          0.34004 /_  -86.0 =   0.023918 +j   -0.3392

ELEMENT = "Line.L35"
35           1          0.21164 /_   86.8 =   0.011948 +j    0.2113
35           2          0.21439 /_   92.2 =  -0.0080522 +j   0.21424
------------
36           1          0.21162 /_  -93.2 =  -0.011935 +j  -0.21129
36           2          0.21437 /_  -87.8 =  0.0080641 +j  -0.21422

ELEMENT = "Line.L36"
35           1           1.2815 /_   64.9 =    0.54329 +j    1.1607
35           2           1.3108 /_   65.1 =    0.55206 +j    1.1889
35           3            1.169 /_   71.7 =    0.36623 +j    1.1102
------------
40           1           1.2815 /_ -115.1 =   -0.54329 +j   -1.1607
40           2           1.3108 /_ -114.9 =   -0.55205 +j   -1.1889
40           3            1.169 /_ -108.3 =   -0.36622 +j   -1.1102

ELEMENT = "Line.L37"
36           1          0.21162 /_   86.8 =   0.011935 +j   0.21129
------------
37           1          0.21162 /_  -93.2 =  -0.011929 +j  -0.21128

ELEMENT = "Line.L38"
36           2          0.21437 /_   92.2 =  -0.0080641 +j   0.21422
------------
38           2          0.21437 /_  -87.8 =  0.0080691 +j  -0.21422

ELEMENT = "Line.L39"
38           2          0.10562 /_   92.1 =  -0.0038109 +j   0.10555
------------
39           2          0.10561 /_  -87.9 =  0.0038175 +j  -0.10554

ELEMENT = "Line.L40"
40           3          0.10884 /_   92.0 =  -0.0037308 +j   0.10877
------------
41           3          0.10883 /_  -88.0 =   0.003737 +j  -0.10877

ELEMENT = "Line.L41"
40           1           1.2815 /_   64.9 =    0.54329 +j    1.1607
40           2           1.3108 /_   65.1 =    0.55205 +j    1.1889
40           3           1.0676 /_   69.7 =    0.36996 +j    1.0014
------------
42           1           1.2815 /_ -115.1 =   -0.54328 +j   -1.1607
42           2           1.3108 /_ -114.9 =   -0.55205 +j   -1.1889
42           3           1.0676 /_ -110.3 =   -0.36995 +j   -1.0014

ELEMENT = "Line.L42"
42           2          0.22021 /_   91.8 =  -0.007009 +j    0.2201
------------
43           2           0.2202 /_  -88.2 =  0.0070197 +j  -0.22009

ELEMENT = "Line.L43"
42           1           1.1819 /_   63.0 =    0.53681 +j     1.053
42           2           1.1186 /_   60.0 =    0.55906 +j   0.96882
42           3           1.0676 /_   69.7 =    0.36995 +j    1.0014
------------
44           1           1.1819 /_ -117.0 =    -0.5368 +j    -1.053
44           2           1.1185 /_ -120.0 =   -0.55906 +j  -0.96881
44           3           1.0676 /_ -110.3 =   -0.36995 +j   -1.0014

ELEMENT = "Line.L44"
44           1            0.213 /_   86.1 =    0.01431 +j   0.21252
------------
45           1            0.213 /_  -93.9 =  -0.014306 +j  -0.21252

ELEMENT = "Line.L45"
44           1          0.98964 /_   58.1 =    0.52249 +j   0.84047
44           2           1.1185 /_   60.0 =    0.55906 +j   0.96881
44           3           1.0676 /_   69.7 =    0.36995 +j    1.0014
------------
47           1          0.98963 /_ -121.9 =   -0.52249 +j  -0.84046
47           2           1.1185 /_ -120.0 =   -0.55905 +j  -0.96881
47           3           1.0676 /_ -110.3 =   -0.36995 +j   -1.0014

ELEMENT = "Line.L46"
45           1          0.10751 /_   86.2 =  0.0071552 +j   0.10727
------------
46           1           0.1075 /_  -93.8 =  -0.0071485 +j  -0.10726

ELEMENT = "Line.L47"
47           1          0.44191 /_   54.8 =    0.25479 +j   0.36106
47           2          0.45743 /_   60.2 =     0.2272 +j   0.39702
47           3          0.45374 /_   60.2 =    0.22534 +j   0.39383
------------
48           1           0.4419 /_ -125.2 =   -0.25478 +j  -0.36105
48           2          0.45742 /_ -119.8 =   -0.22719 +j  -0.39701
48           3          0.45374 /_ -119.8 =   -0.22534 +j  -0.39383

ELEMENT = "Line.L48"
47           1          0.32569 /_   64.8 =    0.13872 +j   0.29467
47           2          0.43726 /_   59.8 =    0.22026 +j   0.37773
47           3          0.41181 /_   85.5 =   0.032225 +j   0.41055
------------
49           1          0.32568 /_ -115.2 =   -0.13872 +j  -0.29466
49           2          0.43725 /_ -120.2 =   -0.22025 +j  -0.37772
49           3          0.41181 /_  -94.5 =  -0.032222 +j  -0.41055

ELEMENT = "Line.L49"
49           1           0.1068 /_   85.9 =  0.0077097 +j   0.10652
49           2      4.0159E-005 /_   47.6 =  2.707E-005 +j 2.9664E-005
49           3          0.21433 /_   90.9 =  -0.0034917 +j    0.2143
------------
50           1          0.10679 /_  -94.1 =  -0.0077022 +j  -0.10652
50           2      3.0127E-005 /_ -132.4 =  -2.0306E-005 +j -2.2256E-005
50           3          0.21432 /_  -89.1 =   0.003495 +j  -0.21429

ELEMENT = "Line.L50"
50           1          0.10679 /_   85.9 =  0.0077022 +j   0.10652
50           2      3.0127E-005 /_   47.6 =  2.0306E-005 +j 2.2256E-005
50           3      1.6107E-005 /_   52.3 =  9.8588E-006 +j 1.2738E-005
------------
51           1          0.10678 /_  -94.1 =  -0.0076948 +j  -0.10651
51           2      2.0086E-005 /_ -132.4 =  -1.3538E-005 +j -1.4839E-005
51           3      1.0739E-005 /_ -127.7 =  -6.5728E-006 +j -8.492E-006

ELEMENT = "Line.L51"
51           1      2.3187E-005 /_   49.9 =  1.4933E-005 +j 1.7738E-005
51           2      2.0086E-005 /_   47.6 =  1.3538E-005 +j 1.4839E-005
51           3      1.0739E-005 /_   52.3 =  6.5728E-006 +j 8.492E-006
------------
151          1      2.1878E-011 /_ -178.5 =  -2.1871E-011 +j -5.6133E-013
151          2      5.5313E-010 /_  139.1 =  -4.1792E-010 +j 3.6234E-010
151          3       3.882E-010 /_  136.2 =  -2.8027E-010 +j 2.6861E-010

ELEMENT = "Line.L52"
52           1           6.2179 /_   52.0 =     3.8242 +j    4.9029
52           2           5.0842 /_   51.8 =      3.144 +j    3.9955
52           3           5.3629 /_   55.9 =     3.0032 +j    4.4432
------------
53           1           6.2179 /_ -128.0 =    -3.8242 +j   -4.9029
53           2           5.0842 /_ -128.2 =     -3.144 +j   -3.9955
53           3           5.3629 /_ -124.1 =    -3.0032 +j   -4.4432

ELEMENT = "Line.L53"
53           1           6.0501 /_   50.9 =     3.8162 +j    4.6947
53           2           5.0842 /_   51.8 =      3.144 +j    3.9955
53           3           5.3629 /_   55.9 =     3.0032 +j    4.4432
------------
54           1           6.0501 /_ -129.1 =    -3.8162 +j   -4.6947
54           2           5.0842 /_ -128.2 =     -3.144 +j   -3.9955
54           3           5.3629 /_ -124.1 =    -3.0032 +j   -4.4432

ELEMENT = "Line.L54"
54           1           0.1002 /_   87.0 =  0.0052618 +j   0.10006
54           2         0.099362 /_   92.5 =  -0.0043748 +j  0.099265
54           3      1.3938E-005 /_   45.8 =  9.7215E-006 +j 9.9883E-006
------------
55           1          0.10019 /_  -93.0 =  -0.0052565 +j  -0.10006
55           2         0.099358 /_  -87.5 =  0.0043794 +j -0.099261
55           3      6.9701E-006 /_ -134.2 =  -4.8613E-006 +j -4.995E-006

ELEMENT = "Line.L55"
54           1           5.9694 /_   50.3 =      3.811 +j    4.5946
54           2           5.0093 /_   51.1 =     3.1484 +j    3.8963
54           3           5.3629 /_   55.9 =     3.0032 +j    4.4432
------------
57           1           5.9694 /_ -129.7 =     -3.811 +j   -4.5946
57           2           5.0093 /_ -128.9 =    -3.1484 +j   -3.8963
57           3           5.3629 /_ -124.1 =    -3.0032 +j   -4.4432

ELEMENT = "Line.L56"
55           1        7.72E-006 /_   46.0 =  5.3634E-006 +j 5.5527E-006
55           2         0.099358 /_   92.5 =  -0.0043794 +j  0.099261
55           3      6.9701E-006 /_   45.8 =  4.8613E-006 +j 4.995E-006
------------
56           1      1.7585E-014 /_   45.0 =  1.2434E-014 +j 1.2434E-014
56           2         0.099354 /_  -87.5 =   0.004384 +j -0.099257
56           3      2.0097E-014 /_ -135.0 =  -1.4211E-014 +j -1.4211E-014

ELEMENT = "Line.L57"
57           2          0.19282 /_   91.4 =  -0.0045498 +j   0.19276
------------
58           2          0.19281 /_  -88.6 =  0.0045572 +j  -0.19276

ELEMENT = "Line.L58"
57           1           5.9694 /_   50.3 =      3.811 +j    4.5946
57           2           4.8638 /_   49.6 =     3.1529 +j    3.7035
57           3           5.3629 /_   55.9 =     3.0032 +j    4.4432
------------
60           1           5.9694 /_ -129.7 =    -3.8109 +j   -4.5946
60           2           4.8638 /_ -130.4 =    -3.1529 +j   -3.7035
60           3           5.3629 /_ -124.1 =    -3.0032 +j   -4.4431

ELEMENT = "Line.L59"
58           2         0.094711 /_   91.3 =  -0.0020774 +j  0.094688
------------
59           2         0.094704 /_  -88.7 =  0.0020848 +j -0.094681

ELEMENT = "Line.L60"
60           1      2.0552E-005 /_   43.1 =  1.5016E-005 +j 1.4032E-005
60           2      1.8519E-005 /_   40.5 =  1.4076E-005 +j 1.2034E-005
60           3      2.0529E-005 /_   43.7 =  1.4833E-005 +j 1.4193E-005
------------
61           1        6.27E-008 /_   39.8 =  4.8181E-008 +j 4.0124E-008
61           2      5.5554E-008 /_   42.0 =  4.1311E-008 +j 3.7144E-008
61           3      5.3764E-008 /_   45.6 =  3.7642E-008 +j 3.8388E-008

ELEMENT = "Line.L61"
60           1          0.19128 /_   29.8 =    0.16595 +j  0.095129
60           2          0.32076 /_   96.0 =  -0.033266 +j   0.31903
60           3          0.59244 /_  103.7 =    -0.1401 +j   0.57563
------------
62           1          0.19109 /_ -150.2 =    -0.1658 +j -0.094994
62           2          0.32065 /_  -84.0 =   0.033406 +j   -0.3189
62           3          0.59235 /_  -76.3 =    0.14024 +j  -0.57551

ELEMENT = "Line.L62"
62           1          0.19109 /_   29.8 =     0.1658 +j  0.094994
62           2          0.32065 /_   96.0 =  -0.033406 +j    0.3189
62           3          0.42616 /_  110.6 =   -0.14996 +j   0.39891
------------
63           1          0.19095 /_ -150.2 =    -0.1657 +j   -0.0949
63           2          0.32057 /_  -84.0 =   0.033504 +j  -0.31881
63           3          0.42611 /_  -69.4 =    0.15005 +j  -0.39882

ELEMENT = "Line.L63"
63           1          0.15792 /_  -30.4 =    0.13622 +j -0.079899
63           2          0.32057 /_   96.0 =  -0.033504 +j   0.31881
63           3          0.42611 /_  110.6 =   -0.15005 +j   0.39882
------------
64           1          0.15784 /_  149.5 =   -0.13601 +j  0.080087
64           2          0.32042 /_  -84.0 =     0.0337 +j  -0.31864
64           3          0.42601 /_  -69.3 =    0.15024 +j  -0.39864

ELEMENT = "Line.L64"
64           1          0.15784 /_  -30.5 =    0.13601 +j -0.080087
64           2        0.0059627 /_  110.1 =  -0.0020472 +j 0.0056003
64           3          0.42601 /_  110.7 =   -0.15024 +j   0.39864
------------
65           1          0.15774 /_  149.4 =   -0.13576 +j  0.080316
65           2        0.0058525 /_  -67.0 =  0.0022864 +j -0.0053874
65           3          0.42589 /_  -69.3 =    0.15047 +j  -0.39843

ELEMENT = "Line.L65"
65           1       0.00025927 /_   42.5 =  0.00019129 +j 0.00017501
65           2       0.00024511 /_   41.7 =  0.0001831 +j 0.00016295
65           3          0.32363 /_   93.1 =  -0.017371 +j   0.32316
------------
66           1      3.5527E-014 /_  126.9 =  -2.1316E-014 +j 2.8422E-014
66           2      2.9296E-014 /_ -104.0 =  -7.1054E-015 +j -2.8422E-014
66           3          0.32347 /_  -86.9 =   0.017546 +j  -0.32299

ELEMENT = "Line.L66"
67           1          0.44047 /_   75.1 =    0.11313 +j    0.4257
------------
68           1          0.44046 /_ -104.9 =   -0.11312 +j  -0.42569

ELEMENT = "Line.L67"
67           1           4.3741 /_   44.6 =     3.1136 +j    3.0722
67           2           4.1925 /_   42.8 =     3.0754 +j    2.8493
67           3           4.3447 /_   46.8 =     2.9724 +j    3.1688
------------
72           1           4.3741 /_ -135.4 =    -3.1136 +j   -3.0722
72           2           4.1925 /_ -137.2 =    -3.0754 +j   -2.8493
72           3           4.3447 /_ -133.2 =    -2.9724 +j   -3.1688

ELEMENT = "Line.L68"
67           1          0.68152 /_   73.8 =    0.18985 +j   0.65455
67           2          0.45374 /_   85.8 =   0.033037 +j   0.45253
67           3          0.56179 /_   84.1 =   0.057282 +j   0.55886
------------
97           1          0.68151 /_ -106.2 =   -0.18984 +j  -0.65454
97           2          0.45373 /_  -94.2 =   -0.03303 +j  -0.45253
97           3          0.56178 /_  -95.9 =  -0.057275 +j  -0.55885

ELEMENT = "Line.L69"
68           1           0.3672 /_   75.1 =   0.094703 +j   0.35478
------------
69           1          0.36719 /_ -104.9 =  -0.094691 +j  -0.35477

ELEMENT = "Line.L70"
69           1          0.22046 /_   75.0 =    0.05721 +j    0.2129
------------
70           1          0.22044 /_ -105.0 =  -0.057195 +j  -0.21289

ELEMENT = "Line.L71"
70           1          0.14699 /_   74.9 =   0.038222 +j   0.14194
------------
71           1          0.14698 /_ -105.1 =  -0.038209 +j  -0.14193

ELEMENT = "Line.L72"
72           3          0.46572 /_   83.6 =    0.05189 +j   0.46282
------------
73           3          0.46571 /_  -96.4 =  -0.051878 +j  -0.46281

ELEMENT = "Line.L73"
72           1           4.3741 /_   44.6 =     3.1136 +j    3.0722
72           2           4.1925 /_   42.8 =     3.0754 +j    2.8493
72           3           3.9814 /_   42.8 =     2.9205 +j     2.706
------------
76           1           4.3741 /_ -135.4 =    -3.1136 +j   -3.0722
76           2           4.1924 /_ -137.2 =    -3.0754 +j   -2.8493
76           3           3.9814 /_ -137.2 =    -2.9205 +j    -2.706

ELEMENT = "Line.L74"
73           3          0.31622 /_   83.7 =   0.034958 +j   0.31429
------------
74           3          0.31621 /_  -96.3 =  -0.034943 +j  -0.31427

ELEMENT = "Line.L75"
74           3          0.14982 /_   83.1 =   0.018075 +j   0.14872
------------
75           3           0.1498 /_  -96.9 =  -0.018058 +j  -0.14871

ELEMENT = "Line.L76"
76           1           3.4692 /_   40.8 =     2.6253 +j    2.2679
76           2           3.1581 /_   40.6 =     2.3967 +j    2.0566
76           3           3.2068 /_   41.5 =     2.4016 +j     2.125
------------
77           1           3.4692 /_ -139.2 =    -2.6253 +j   -2.2679
77           2           3.1581 /_ -139.4 =    -2.3967 +j   -2.0566
77           3           3.2068 /_ -138.5 =    -2.4016 +j    -2.125

ELEMENT = "Line.L77"
76           1          0.93651 /_   49.2 =    0.61209 +j    0.7088
76           2           1.0623 /_   58.2 =    0.56008 +j   0.90266
76           3          0.76477 /_   47.8 =    0.51371 +j   0.56654
------------
86           1          0.93647 /_ -130.8 =   -0.61206 +j  -0.70877
86           2           1.0623 /_ -121.8 =   -0.56006 +j  -0.90264
86           3          0.76474 /_ -132.2 =   -0.51369 +j  -0.56652

ELEMENT = "Line.L78"
77           1           3.4692 /_   40.8 =     2.6253 +j    2.2679
77           2           3.0632 /_   38.9 =     2.3843 +j     1.923
77           3           3.2068 /_   41.5 =     2.4016 +j     2.125
------------
78           1           3.4692 /_ -139.2 =    -2.6253 +j   -2.2679
78           2           3.0631 /_ -141.1 =    -2.3843 +j    -1.923
78           3           3.2068 /_ -138.5 =    -2.4016 +j    -2.125

ELEMENT = "Line.L79"
78           1          0.15015 /_   74.3 =   0.040693 +j   0.14453
78           2       1.117E-005 /_   38.3 =  8.7666E-006 +j 6.9221E-006
78           3      9.2068E-006 /_   41.3 =  6.9119E-006 +j 6.0821E-006
------------
79           1          0.15014 /_ -105.7 =  -0.040684 +j  -0.14453
79           2      2.5619E-014 /_  -33.7 =  2.1316E-014 +j -1.4211E-014
79           3      2.8422E-014 /_   90.0 =          0 +j 2.8422E-014

ELEMENT = "Line.L80"
78           1            3.345 /_   39.4 =     2.5846 +j    2.1234
78           2           3.0631 /_   38.9 =     2.3843 +j     1.923
78           3           3.2067 /_   41.5 =     2.4016 +j     2.125
------------
80           1           3.3449 /_ -140.6 =    -2.5845 +j   -2.1234
80           2           3.0631 /_ -141.1 =    -2.3843 +j    -1.923
80           3           3.2067 /_ -138.5 =    -2.4015 +j    -2.125

ELEMENT = "Line.L81"
80           1           3.3449 /_   39.4 =     2.5845 +j    2.1234
80           2            2.977 /_   37.2 =     2.3715 +j    1.7996
80           3           3.2067 /_   41.5 =     2.4015 +j     2.125
------------
81           1           3.3449 /_ -140.6 =    -2.5845 +j   -2.1234
81           2            2.977 /_ -142.8 =    -2.3715 +j   -1.7996
81           3           3.2067 /_ -138.5 =    -2.4015 +j    -2.125

ELEMENT = "Line.L82"
81           1           3.3449 /_   39.4 =     2.5845 +j    2.1234
81           2            2.977 /_   37.2 =     2.3715 +j    1.7996
81           3           3.0638 /_   39.3 =     2.3703 +j    1.9413
------------
82           1           3.3449 /_ -140.6 =    -2.5845 +j   -2.1234
82           2            2.977 /_ -142.8 =    -2.3715 +j   -1.7996
82           3           3.0638 /_ -140.7 =    -2.3703 +j   -1.9413

ELEMENT = "Line.L83"
81           3          0.18637 /_   80.4 =   0.031239 +j   0.18373
------------
84           3          0.18633 /_  -99.6 =  -0.031202 +j   -0.1837

ELEMENT = "Line.L84"
82           1           3.2484 /_   38.5 =     2.5439 +j      2.02
82           2            2.977 /_   37.2 =     2.3715 +j    1.7996
82           3           3.0638 /_   39.3 =     2.3703 +j    1.9413
------------
83           1           3.2484 /_ -141.5 =    -2.5439 +j     -2.02
83           2            2.977 /_ -142.8 =    -2.3715 +j   -1.7996
83           3           3.0638 /_ -140.7 =    -2.3703 +j   -1.9413

ELEMENT = "Line.L85"
84           3          0.12429 /_   80.3 =   0.020957 +j   0.12251
------------
85           3          0.12426 /_  -99.7 =  -0.020931 +j  -0.12249

ELEMENT = "Line.L86"
86           1          0.93647 /_   49.2 =    0.61206 +j   0.70877
86           2           1.0004 /_   56.5 =    0.55278 +j   0.83383
86           3          0.76474 /_   47.8 =    0.51369 +j   0.56652
------------
87           1          0.93645 /_ -130.8 =   -0.61205 +j  -0.70876
87           2           1.0004 /_ -123.5 =   -0.55277 +j  -0.83382
87           3          0.76472 /_ -132.2 =   -0.51368 +j  -0.56651

ELEMENT = "Line.L87"
87           1          0.81711 /_   45.6 =    0.57125 +j   0.58425
------------
88           1           0.8171 /_ -134.4 =   -0.57124 +j  -0.58424

ELEMENT = "Line.L88"
87           1          0.13102 /_   71.9 =   0.040801 +j   0.12451
87           2          0.88055 /_   52.5 =    0.53659 +j   0.69817
87           3          0.76472 /_   47.8 =    0.51368 +j   0.56651
------------
89           1          0.13101 /_ -108.1 =  -0.040791 +j   -0.1245
89           2          0.88053 /_ -127.5 =   -0.53658 +j  -0.69816
89           3          0.76471 /_ -132.2 =   -0.51367 +j   -0.5665

ELEMENT = "Line.L89"
89           2          0.76593 /_   47.4 =     0.5186 +j   0.56365
------------
90           2          0.76591 /_ -132.6 =   -0.51859 +j  -0.56364

ELEMENT = "Line.L90"
89           1          0.13101 /_   71.9 =   0.040791 +j    0.1245
89           2           0.1357 /_   82.4 =   0.017976 +j   0.13451
89           3          0.76471 /_   47.8 =    0.51367 +j    0.5665
------------
91           1            0.131 /_ -108.1 =  -0.040782 +j  -0.12449
91           2          0.13569 /_  -97.6 =  -0.017967 +j   -0.1345
91           3           0.7647 /_ -132.2 =   -0.51366 +j   -0.5665

ELEMENT = "Line.L91"
91           3          0.76468 /_   47.8 =    0.51365 +j   0.56648
------------
92           3          0.76466 /_ -132.2 =   -0.51363 +j  -0.56647

ELEMENT = "Line.L92"
91           1            0.131 /_   71.9 =   0.040782 +j   0.12449
91           2          0.13569 /_   82.4 =   0.017967 +j    0.1345
91           3      2.1216E-005 /_   42.0 =  1.5768E-005 +j 1.4195E-005
------------
93           1          0.13099 /_ -108.1 =  -0.040773 +j  -0.12448
93           2          0.13569 /_  -97.6 =  -0.017958 +j  -0.13449
93           3      1.2124E-005 /_ -138.0 =  -9.0109E-006 +j -8.1122E-006

ELEMENT = "Line.L93"
93           1          0.13098 /_   71.9 =   0.040762 +j   0.12447
------------
94           1          0.13096 /_ -108.1 =  -0.040747 +j  -0.12446

ELEMENT = "Line.L94"
93           1      1.5412E-005 /_   41.0 =  1.1629E-005 +j 1.0114E-005
93           2          0.13569 /_   82.4 =   0.017958 +j   0.13449
93           3      1.2124E-005 /_   42.0 =  9.0109E-006 +j 8.1122E-006
------------
95           1      4.3221E-014 /_   -9.5 =  4.2633E-014 +j -7.1054E-015
95           2          0.13567 /_  -97.6 =  -0.017947 +j  -0.13448
95           3      1.4211E-014 /_    0.0 =  1.4211E-014 +j         0

ELEMENT = "Line.L95"
95           2          0.06785 /_   82.4 =  0.0090023 +j   0.06725
------------
96           2          0.06784 /_  -97.6 =  -0.0089924 +j -0.067242

ELEMENT = "Line.L96"
97           1          0.14624 /_   75.0 =   0.037807 +j   0.14127
97           2          0.15136 /_   86.2 =   0.010044 +j   0.15103
97           3          0.17326 /_   84.9 =   0.015433 +j   0.17257
------------
98           1          0.14623 /_ -105.0 =  -0.037797 +j  -0.14126
98           2          0.15136 /_  -93.8 =  -0.010036 +j  -0.15102
98           3          0.17325 /_  -95.1 =  -0.015426 +j  -0.17256

ELEMENT = "Line.L97"
98           1       8.362E-005 /_   42.4 =  6.178E-005 +j 5.6352E-005
98           2          0.15136 /_   86.2 =   0.010036 +j   0.15102
98           3          0.17325 /_   84.9 =   0.015426 +j   0.17256
------------
99           1      5.5756E-005 /_ -137.6 =  -4.1192E-005 +j -3.7575E-005
99           2          0.15134 /_  -93.8 =   -0.01002 +j  -0.15101
99           3          0.17324 /_  -95.1 =  -0.015412 +j  -0.17255

ELEMENT = "Line.L98"
99           1      5.5756E-005 /_   42.4 =  4.1192E-005 +j 3.7575E-005
99           2      4.1974E-005 /_   40.0 =  3.2142E-005 +j 2.6995E-005
99           3          0.17324 /_   84.9 =   0.015412 +j   0.17255
------------
100          1      4.0551E-005 /_ -137.6 =  -2.9959E-005 +j -2.7328E-005
100          2      3.0528E-005 /_ -140.0 =  -2.3377E-005 +j -1.9633E-005
100          3          0.17323 /_  -95.1 =  -0.015404 +j  -0.17254

ELEMENT = "Line.L99"
100          1      4.0551E-005 /_   42.4 =  2.9959E-005 +j 2.7328E-005
100          2      3.0528E-005 /_   40.0 =  2.3377E-005 +j 1.9633E-005
100          3      2.8738E-005 /_   44.3 =  2.0581E-005 +j 2.0057E-005
------------
450          1      5.0243E-015 /_ -135.0 =  -3.5527E-015 +j -3.5527E-015
450          2      5.0243E-015 /_  135.0 =  -3.5527E-015 +j 3.5527E-015
450          3                0 /_    0.0 =          0 +j         0

ELEMENT = "Line.L118"
197          1          0.53531 /_   73.5 =    0.15203 +j   0.51326
197          2          0.30237 /_   85.6 =   0.022986 +j    0.3015
197          3          0.38854 /_   83.8 =   0.041843 +j   0.38628
------------
101          1           0.5353 /_ -106.5 =   -0.15202 +j  -0.51326
101          2          0.30236 /_  -94.4 =  -0.022979 +j  -0.30149
101          3          0.38854 /_  -96.2 =  -0.041836 +j  -0.38628

ELEMENT = "Line.L100"
101          3          0.38849 /_   83.8 =   0.041795 +j   0.38624
------------
102          3          0.38848 /_  -96.2 =  -0.041786 +j  -0.38623

ELEMENT = "Line.L101"
101          1           0.5353 /_   73.5 =    0.15202 +j   0.51326
101          2          0.30236 /_   85.6 =   0.022979 +j   0.30149
101          3      5.7356E-005 /_   44.1 =  4.1161E-005 +j 3.9943E-005
------------
105          1          0.53528 /_ -106.5 =   -0.15201 +j  -0.51325
105          2          0.30236 /_  -94.4 =  -0.022971 +j  -0.30148
105          3      4.7506E-005 /_ -135.9 =  -3.4093E-005 +j -3.3084E-005

ELEMENT = "Line.L102"
102          3           0.3109 /_   83.8 =   0.033846 +j   0.30905
------------
103          3          0.31089 /_  -96.2 =  -0.033832 +j  -0.30904

ELEMENT = "Line.L103"
103          3          0.15555 /_   83.6 =   0.017289 +j   0.15459
------------
104          3          0.15552 /_  -96.4 =   -0.01726 +j  -0.15456

ELEMENT = "Line.L104"
105          2          0.30232 /_   85.6 =   0.022932 +j   0.30145
------------
106          2          0.30231 /_  -94.3 =  -0.022923 +j  -0.30144

ELEMENT = "Line.L105"
105          1          0.53528 /_   73.5 =    0.15201 +j   0.51325
105          2      5.0693E-005 /_   40.1 =  3.8799E-005 +j 3.2626E-005
105          3      4.7506E-005 /_   44.1 =  3.4093E-005 +j 3.3084E-005
------------
108          1          0.53527 /_ -106.5 =     -0.152 +j  -0.51324
108          2      3.8263E-005 /_ -139.9 =  -2.9285E-005 +j -2.4626E-005
108          3      3.5857E-005 /_ -135.9 =  -2.5733E-005 +j -2.4971E-005

ELEMENT = "Line.L106"
106          2          0.15124 /_   85.5 =   0.011762 +j   0.15078
------------
107          2          0.15121 /_  -94.5 =  -0.011737 +j  -0.15076

ELEMENT = "Line.L107"
108          1          0.53523 /_   73.5 =    0.15196 +j    0.5132
------------
109          1           0.5352 /_ -106.5 =   -0.15194 +j  -0.51318

ELEMENT = "Line.L108"
108          1      5.1289E-005 /_   42.6 =  3.7747E-005 +j 3.4724E-005
108          2      3.8263E-005 /_   40.1 =  2.9285E-005 +j 2.4626E-005
108          3      3.5857E-005 /_   44.1 =  2.5733E-005 +j 2.4971E-005
------------
300          1      1.1916E-014 /_   63.4 =  5.3291E-015 +j 1.0658E-014
300          2      1.8289E-014 /_   60.9 =  8.8818E-015 +j 1.5987E-014
300          3      1.0049E-014 /_ -135.0 =  -7.1054E-015 +j -7.1054E-015

ELEMENT = "Line.L109"
109          1          0.38816 /_   73.6 =    0.10985 +j   0.37229
------------
110          1          0.38814 /_ -106.4 =   -0.10983 +j  -0.37228

ELEMENT = "Line.L110"
110          1         0.073732 /_   73.0 =   0.021585 +j  0.070501
------------
111          1           0.0737 /_ -107.0 =  -0.021558 +j -0.070477

ELEMENT = "Line.L111"
110          1          0.31442 /_   73.7 =   0.088247 +j   0.30178
------------
112          1          0.31441 /_ -106.3 =  -0.088241 +j  -0.30177

ELEMENT = "Line.L112"
112          1          0.23672 /_   73.7 =   0.066547 +j   0.22717
------------
113          1          0.23669 /_ -106.3 =  -0.066523 +j  -0.22715

ELEMENT = "Line.L113"
113          1         0.073881 /_   72.6 =    0.02204 +j  0.070517
------------
114          1         0.073863 /_ -107.3 =  -0.022024 +j -0.070503

ELEMENT = "Line.L114"
135          1           1.4095 /_   73.6 =    0.39683 +j    1.3525
135          2           1.5866 /_   63.7 =    0.70243 +j    1.4226
135          3           1.1691 /_   71.7 =    0.36623 +j    1.1102
------------
35           1           1.4095 /_ -106.4 =   -0.39682 +j   -1.3525
35           2           1.5866 /_ -116.3 =   -0.70242 +j   -1.4226
35           3            1.169 /_ -108.3 =   -0.36623 +j   -1.1102

ELEMENT = "Line.L116"
152          1           6.3903 /_   53.2 =     3.8284 +j    5.1165
152          2           5.0842 /_   51.8 =      3.144 +j    3.9955
152          3            5.363 /_   55.9 =     3.0032 +j    4.4432
------------
52           1           6.3903 /_ -126.8 =    -3.8284 +j   -5.1165
52           2           5.0842 /_ -128.2 =     -3.144 +j   -3.9955
52           3           5.3629 /_ -124.1 =    -3.0032 +j   -4.4432

ELEMENT = "Line.L117"
160R         1           5.3774 /_   50.6 =     3.4166 +j    4.1525
160R         2           4.5348 /_   46.7 =     3.1084 +j    3.3019
160R         3           4.8036 /_   50.9 =     3.0297 +j    3.7277
------------
67           1           5.3774 /_ -129.4 =    -3.4166 +j   -4.1525
67           2           4.5348 /_ -133.3 =    -3.1084 +j   -3.3019
67           3           4.8036 /_ -129.1 =    -3.0297 +j   -3.7277

ELEMENT = "Line.SW1"
150R         1           9.4979 /_   63.7 =     4.2082 +j    8.5148
150R         2           7.0063 /_   57.1 =     3.8023 +j    5.8848
150R         3           8.0978 /_   66.6 =     3.2119 +j    7.4336
------------
149          1           9.4979 /_ -116.3 =    -4.2082 +j   -8.5148
149          2           7.0063 /_ -122.9 =    -3.8023 +j   -5.8848
149          3           8.0978 /_ -113.4 =    -3.2119 +j   -7.4336

ELEMENT = "Line.SW2"
13           1           6.3903 /_   53.2 =     3.8284 +j    5.1165
13           2           5.0842 /_   51.8 =      3.144 +j    3.9955
13           3            5.363 /_   55.9 =     3.0032 +j    4.4432
------------
152          1           6.3903 /_ -126.8 =    -3.8284 +j   -5.1165
152          2           5.0842 /_ -128.2 =     -3.144 +j   -3.9955
152          3            5.363 /_ -124.1 =    -3.0032 +j   -4.4432

ELEMENT = "Line.SW3"
18           1           1.4095 /_   73.6 =    0.39683 +j    1.3525
18           2           1.5866 /_   63.7 =    0.70243 +j    1.4226
18           3           1.1691 /_   71.7 =    0.36623 +j    1.1102
------------
135          1           1.4095 /_ -106.4 =   -0.39683 +j   -1.3525
135          2           1.5866 /_ -116.3 =   -0.70243 +j   -1.4226
135          3           1.1691 /_ -108.3 =   -0.36623 +j   -1.1102

ELEMENT = "Line.SW4"
60           1           5.7135 /_   50.6 =     3.6301 +j     4.412
60           2           4.6482 /_   46.7 =     3.1861 +j    3.3844
60           3           4.9837 /_   50.9 =     3.1433 +j    3.8675
------------
160          1           5.7135 /_ -129.4 =    -3.6301 +j    -4.412
160          2           4.6482 /_ -133.3 =    -3.1861 +j   -3.3844
160          3           4.9837 /_ -129.1 =    -3.1433 +j   -3.8675

ELEMENT = "Line.SW5"
97           1          0.53531 /_   73.5 =    0.15203 +j   0.51326
97           2          0.30237 /_   85.6 =   0.022986 +j    0.3015
97           3          0.38854 /_   83.8 =   0.041843 +j   0.38628
------------
197          1          0.53531 /_ -106.5 =   -0.15203 +j  -0.51326
197          2          0.30237 /_  -94.4 =  -0.022986 +j   -0.3015
197          3          0.38854 /_  -96.2 =  -0.041843 +j  -0.38628

ELEMENT = "Line.SW6"
61           1      6.1333E-008 /_ -138.1 =  -4.5635E-008 +j -4.0978E-008
61           2      5.4758E-008 /_ -138.4 =  -4.0978E-008 +j -3.6322E-008
61           3      5.4145E-008 /_ -139.2 =  -4.0978E-008 +j -3.539E-008
------------
61S          1      6.1333E-008 /_   41.9 =  4.5635E-008 +j 4.0978E-008
61S          2      5.4758E-008 /_   41.6 =  4.0978E-008 +j 3.6322E-008
61S          3      5.4145E-008 /_   40.8 =  4.0978E-008 +j 3.539E-008

ELEMENT = "Line.SW7"
151          1      6.5854E-010 /_  135.0 =  -4.6566E-010 +j 4.6566E-010
151          2      6.5854E-010 /_   45.0 =  4.6566E-010 +j 4.6566E-010
151          3      1.3171E-009 /_  -45.0 =  9.3132E-010 +j -9.3132E-010
------------
300_OPEN     1      6.5854E-010 /_  -45.0 =  4.6566E-010 +j -4.6566E-010
300_OPEN     2      6.5854E-010 /_ -135.0 =  -4.6566E-010 +j -4.6566E-010
300_OPEN     3      1.3171E-009 /_  135.0 =  -9.3132E-010 +j 9.3132E-010

ELEMENT = "Line.SW8"
54           1         1.2E-010 /_ -166.0 =  -1.1642E-010 +j -2.9104E-011
------------
94_OPEN      1         1.2E-010 /_   14.0 =  1.1642E-010 +j 2.9104E-011

ELEMENT = "Transformer.XFM1"
61S          1      6.2615E-008 /_ -137.2 =  -4.5932E-008 +j -4.2555E-008
61S          2      5.5563E-008 /_ -139.3 =  -4.2151E-008 +j -3.6202E-008
61S          3      5.3706E-008 /_ -136.0 =  -3.8648E-008 +j -3.7293E-008
61S          0                0 /_    0.0 =          0 +j         0
------------
610          1      2.1665E-015 /_   92.2 =  -8.3267E-017 +j 2.1649E-015
610          2      1.1671E-015 /_ -115.3 =  -4.996E-016 +j -1.0547E-015
610          3      1.5896E-015 /_  -65.2 =  6.6613E-016 +j -1.4433E-015
610          0                0 /_    0.0 =          0 +j         0

ELEMENT = "Capacitor.C83"
83           1           3.2484 /_   38.5 =     2.5439 +j      2.02
83           2            2.977 /_   37.2 =     2.3715 +j    1.7996
83           3           3.0205 /_   38.6 =     2.3603 +j    1.8848
------------
83           0           3.2484 /_ -141.5 =    -2.5439 +j     -2.02
83           0            2.977 /_ -142.8 =    -2.3715 +j   -1.7996
83           0           3.0205 /_ -141.4 =    -2.3603 +j   -1.8848

ELEMENT = "Capacitor.C88A"
88           1          0.70196 /_   40.9 =     0.5306 +j   0.45957
------------
88           0          0.70196 /_ -139.1 =    -0.5306 +j  -0.45957

ELEMENT = "Capacitor.C90B"
90           2          0.65321 /_   39.9 =    0.50143 +j   0.41863
------------
90           0          0.65321 /_ -140.1 =   -0.50143 +j  -0.41863

ELEMENT = "Capacitor.C92C"
92           3          0.65592 /_   41.1 =    0.49393 +j   0.43158
------------
92           0          0.65592 /_ -138.9 =   -0.49393 +j  -0.43158

ELEMENT = "Transformer.REG2A"
9            1          0.35726 /_   93.0 =  -0.018798 +j   0.35676
9            0          0.35726 /_  -87.0 =   0.018798 +j  -0.35676
------------
9R           1          0.35726 /_  -87.0 =   0.018798 +j  -0.35676
9R           0          0.35726 /_   93.0 =  -0.018798 +j   0.35676

ELEMENT = "Transformer.REG3A"
25           1          0.21761 /_   86.2 =   0.014421 +j   0.21713
25           0          0.21761 /_  -93.8 =  -0.014421 +j  -0.21713
------------
25R          1          0.21492 /_  -93.8 =  -0.014243 +j  -0.21445
25R          0          0.21492 /_   86.2 =   0.014243 +j   0.21445

ELEMENT = "Transformer.REG4A"
160          1           5.7135 /_   50.6 =     3.6301 +j     4.412
160          0           5.7135 /_ -129.4 =    -3.6301 +j    -4.412
------------
160R         1           5.3774 /_ -129.4 =    -3.4166 +j   -4.1525
160R         0           5.3774 /_   50.6 =     3.4166 +j    4.1525

ELEMENT = "Transformer.REG3C"
25           3          0.22023 /_   92.1 =  -0.0081475 +j   0.22008
25           0          0.22023 /_  -87.9 =  0.0081475 +j  -0.22008
------------
25R          3          0.22023 /_  -87.9 =  0.0081475 +j  -0.22008
25R          0          0.22023 /_   92.1 =  -0.0081475 +j   0.22008

ELEMENT = "Transformer.REG4B"
160          2           4.6482 /_   46.7 =     3.1861 +j    3.3844
160          0           4.6482 /_ -133.3 =    -3.1861 +j   -3.3844
------------
160R         2           4.5348 /_ -133.3 =    -3.1084 +j   -3.3019
160R         0           4.5348 /_   46.7 =     3.1084 +j    3.3019

ELEMENT = "Transformer.REG4C"
160          3           4.9837 /_   50.9 =     3.1433 +j    3.8675
160          0           4.9837 /_ -129.1 =    -3.1433 +j   -3.8675
------------
160R         3           4.8036 /_ -129.1 =    -3.0297 +j   -3.7277
160R         0           4.8036 /_   50.9 =     3.0297 +j    3.7277

= = = = = = = = = = = = = = = = = = =  = = = = = = = = = = =  = =

Power Conversion Elements

  Bus    Phase    Magnitude, A     Angle      (Real)   +j  (Imag)

ELEMENT = "Load.S1A"
1            1           0.2725 /_   98.4 =   -0.03962 +j   0.26961
1            0           0.2725 /_  -81.6 =    0.03962 +j  -0.26961

ELEMENT = "Load.S2B"
2            2          0.13494 /_   99.3 =  -0.021907 +j   0.13315
2            0          0.13494 /_  -80.7 =   0.021907 +j  -0.13315

ELEMENT = "Load.S4C"
4            3          0.27211 /_   99.0 =  -0.042759 +j   0.26873
4            0          0.27211 /_  -81.0 =   0.042759 +j  -0.26873

ELEMENT = "Load.S5C"
5            3          0.13975 /_   99.0 =  -0.021852 +j   0.13804
5            0          0.13975 /_  -81.0 =   0.021852 +j  -0.13804

ELEMENT = "Load.S6C"
6            3           0.2867 /_   99.0 =  -0.044638 +j    0.2832
6            0           0.2867 /_  -81.0 =   0.044638 +j   -0.2832

ELEMENT = "Load.S7A"
7            1           0.1375 /_   96.9 =  -0.016604 +j    0.1365
7            0           0.1375 /_  -83.1 =   0.016604 +j   -0.1365

ELEMENT = "Load.S9A"
9            1          0.27706 /_   95.9 =  -0.028501 +j   0.27559
9            0          0.27706 /_  -84.1 =   0.028501 +j  -0.27559

ELEMENT = "Load.S10A"
10           1          0.13975 /_   95.8 =  -0.014091 +j   0.13904
10           0          0.13975 /_  -84.2 =   0.014091 +j  -0.13904

ELEMENT = "Load.S11A"
11           1          0.28132 /_   95.8 =  -0.028271 +j    0.2799
11           0          0.28132 /_  -84.2 =   0.028271 +j   -0.2799

ELEMENT = "Load.S12B"
12           2          0.13532 /_   98.1 =  -0.019017 +j   0.13398
12           0          0.13532 /_  -81.9 =   0.019017 +j  -0.13398

ELEMENT = "Load.S16C"
16           3          0.27625 /_   96.9 =  -0.033237 +j   0.27424
16           0          0.27625 /_  -83.1 =   0.033237 +j  -0.27424

ELEMENT = "Load.S17C"
17           3          0.13805 /_   96.9 =  -0.016682 +j   0.13704
17           0          0.13805 /_  -83.1 =   0.016682 +j  -0.13704

ELEMENT = "Load.S19A"
19           1          0.28178 /_   93.3 =  -0.016332 +j   0.28131
19           0          0.28178 /_  -86.7 =   0.016332 +j  -0.28131

ELEMENT = "Load.S20A"
20           1          0.27951 /_   93.3 =  -0.015955 +j   0.27905
20           0          0.27951 /_  -86.7 =   0.015955 +j  -0.27905

ELEMENT = "Load.S22B"
22           2          0.28661 /_   96.6 =  -0.032719 +j   0.28473
22           0          0.28661 /_  -83.4 =   0.032719 +j  -0.28473

ELEMENT = "Load.S24C"
24           3          0.27867 /_   96.6 =  -0.032251 +j    0.2768
24           0          0.27867 /_  -83.4 =   0.032251 +j   -0.2768

ELEMENT = "Load.S28A"
28           1          0.27951 /_   92.8 =  -0.013813 +j   0.27917
28           0          0.27951 /_  -87.2 =   0.013813 +j  -0.27917

ELEMENT = "Load.S29A"
29           1          0.27702 /_   92.8 =  -0.013381 +j    0.2767
29           0          0.27702 /_  -87.2 =   0.013381 +j   -0.2767

ELEMENT = "Load.S30C"
30           3          0.27886 /_   96.7 =  -0.032333 +j   0.27698
30           0          0.27886 /_  -83.3 =   0.032333 +j  -0.27698

ELEMENT = "Load.S31C"
31           3          0.13941 /_   96.7 =  -0.016188 +j   0.13846
31           0          0.13941 /_  -83.3 =   0.016188 +j  -0.13846

ELEMENT = "Load.S32C"
32           3          0.13946 /_   96.6 =  -0.016139 +j   0.13852
32           0          0.13946 /_  -83.4 =   0.016139 +j  -0.13852

ELEMENT = "Load.S33A"
33           1          0.27951 /_   92.7 =  -0.013191 +j    0.2792
33           0          0.27951 /_  -87.3 =   0.013191 +j   -0.2792

ELEMENT = "Load.S34C"
34           3          0.28319 /_   97.0 =  -0.034461 +j   0.28109
34           0          0.28319 /_  -83.0 =   0.034461 +j  -0.28109

ELEMENT = "Load.S35A"
35           1          0.16107 /_ -173.5 =   -0.16005 +j -0.018114
35           2          0.16107 /_    6.5 =    0.16005 +j  0.018114

ELEMENT = "Load.S37A"
37           1          0.27637 /_   93.0 =  -0.014648 +j   0.27598
37           0          0.27637 /_  -87.0 =   0.014648 +j  -0.27598

ELEMENT = "Load.S38B"
38           2          0.13975 /_   96.2 =  -0.015093 +j   0.13894
38           0          0.13975 /_  -83.8 =   0.015093 +j  -0.13894

ELEMENT = "Load.S39B"
39           2          0.13666 /_   96.2 =  -0.014702 +j   0.13586
39           0          0.13666 /_  -83.8 =   0.014702 +j  -0.13586

ELEMENT = "Load.S41C"
41           3          0.13917 /_   96.5 =  -0.015743 +j   0.13827
41           0          0.13917 /_  -83.5 =   0.015743 +j  -0.13827

ELEMENT = "Load.S42A"
42           1          0.14154 /_   92.9 =  -0.0072338 +j   0.14136
42           0          0.14154 /_  -87.1 =  0.0072338 +j  -0.14136

ELEMENT = "Load.S43B"
43           2          0.28527 /_   96.0 =  -0.029856 +j    0.2837
43           0          0.28527 /_  -84.0 =   0.029856 +j   -0.2837

ELEMENT = "Load.S45A"
45           1          0.13975 /_   92.8 =  -0.0068449 +j   0.13959
45           0          0.13975 /_  -87.2 =  0.0068449 +j  -0.13959

ELEMENT = "Load.S46A"
46           1          0.14183 /_   92.8 =  -0.0068877 +j   0.14166
46           0          0.14183 /_  -87.2 =  0.0068877 +j  -0.14166

ELEMENT = "Load.S47"
47           1          0.26862 /_   65.9 =    0.10987 +j   0.24513
47           2          0.26862 /_   69.0 =   0.096314 +j   0.25076
47           3          0.26862 /_   69.3 =   0.095148 +j   0.25121
47           0          0.80558 /_ -112.0 =   -0.30134 +j   -0.7471

ELEMENT = "Load.S48"
48           1          0.52878 /_   65.8 =    0.21648 +j   0.48244
48           2          0.54752 /_   69.0 =    0.19649 +j   0.51105
48           3          0.53777 /_   69.2 =    0.19074 +j    0.5028
48           0           1.6135 /_ -112.0 =   -0.60371 +j   -1.4963

ELEMENT = "Load.S49A"
49           1          0.27292 /_   65.8 =    0.11173 +j     0.249
49           0          0.27292 /_ -114.2 =   -0.11173 +j    -0.249

ELEMENT = "Load.S49B"
49           2          0.52731 /_   69.0 =    0.18928 +j   0.49216
49           0          0.52731 /_ -111.0 =   -0.18928 +j  -0.49216

ELEMENT = "Load.S49C"
49           3          0.25154 /_   86.6 =   0.015094 +j   0.25109
49           0          0.25154 /_  -93.4 =  -0.015094 +j  -0.25109

ELEMENT = "Load.S50C"
50           3          0.27915 /_   96.1 =  -0.029492 +j   0.27759
50           0          0.27915 /_  -83.9 =   0.029492 +j  -0.27759

ELEMENT = "Load.S51A"
51           1          0.14191 /_   92.7 =  -0.0066715 +j   0.14176
51           0          0.14191 /_  -87.3 =  0.0066715 +j  -0.14176

ELEMENT = "Load.S52A"
52           1          0.28055 /_   93.5 =  -0.017269 +j   0.28002
52           0          0.28055 /_  -86.5 =   0.017269 +j  -0.28002

ELEMENT = "Load.S53A"
53           1          0.28132 /_   93.0 =  -0.014668 +j   0.28094
53           0          0.28132 /_  -87.0 =   0.014668 +j  -0.28094

ELEMENT = "Load.S55A"
55           1          0.13861 /_   92.7 =  -0.0064438 +j   0.13846
55           0          0.13861 /_  -87.3 =  0.0064438 +j  -0.13846

ELEMENT = "Load.S56B"
56           2          0.13592 /_   96.0 =  -0.014242 +j   0.13517
56           0          0.13592 /_  -84.0 =   0.014242 +j  -0.13517

ELEMENT = "Load.S58B"
58           2          0.13975 /_   95.4 =  -0.013185 +j   0.13913
58           0          0.13975 /_  -84.6 =   0.013185 +j  -0.13913

ELEMENT = "Load.S59B"
59           2          0.13638 /_   95.4 =  -0.012823 +j   0.13578
59           0          0.13638 /_  -84.6 =   0.012823 +j  -0.13578

ELEMENT = "Load.S60A"
60           1          0.14227 /_   89.7 =  0.00077482 +j   0.14227
60           0          0.14227 /_  -90.3 =  -0.00077482 +j  -0.14227

ELEMENT = "Load.S62C"
62           3          0.27883 /_   93.6 =  -0.017577 +j   0.27828
62           0          0.27883 /_  -86.4 =   0.017577 +j  -0.27828

ELEMENT = "Load.S63A"
63           1          0.28494 /_   89.7 =  0.0013175 +j   0.28494
63           0          0.28494 /_  -90.3 =  -0.0013175 +j  -0.28494

ELEMENT = "Load.S64B"
64           2          0.51728 /_   99.1 =  -0.081915 +j   0.51075
64           0          0.51728 /_  -80.9 =   0.081915 +j  -0.51075

ELEMENT = "Load.S65A"
65           1          0.15344 /_  157.1 =    -0.1414 +j  0.059601
65           2          0.15344 /_  -22.9 =     0.1414 +j -0.059601

ELEMENT = "Load.S65B"
65           2          0.15589 /_  155.9 =   -0.14228 +j  0.063701
65           3          0.15589 /_  -24.1 =    0.14228 +j -0.063701

ELEMENT = "Load.S65C"
65           3          0.30739 /_  154.1 =   -0.27661 +j   0.13408
65           1          0.30739 /_  -25.9 =    0.27661 +j  -0.13408

ELEMENT = "Load.S66C"
66           3          0.52256 /_   98.1 =  -0.073736 +j   0.51734
66           0          0.52256 /_  -81.9 =   0.073736 +j  -0.51734

ELEMENT = "Load.S68A"
68           1          0.13434 /_   88.9 =  0.0026757 +j   0.13431
68           0          0.13434 /_  -91.1 =  -0.0026757 +j  -0.13431

ELEMENT = "Load.S69A"
69           1          0.26913 /_   88.8 =  0.0058218 +j   0.26906
69           0          0.26913 /_  -91.2 =  -0.0058218 +j  -0.26906

ELEMENT = "Load.S70A"
70           1          0.13472 /_   88.7 =  0.0030786 +j   0.13469
70           0          0.13472 /_  -91.3 =  -0.0030786 +j  -0.13469

ELEMENT = "Load.S71A"
71           1          0.26963 /_   88.7 =  0.0063471 +j   0.26955
71           0          0.26963 /_  -91.3 =  -0.0063471 +j  -0.26955

ELEMENT = "Load.S73C"
73           3          0.27069 /_   92.8 =  -0.013087 +j   0.27037
73           0          0.27069 /_  -87.2 =   0.013087 +j  -0.27037

ELEMENT = "Load.S74C"
74           3           0.2881 /_   92.7 =  -0.013403 +j   0.28779
74           0           0.2881 /_  -87.3 =   0.013403 +j  -0.28779

ELEMENT = "Load.S75C"
75           3          0.27144 /_   92.6 =  -0.012353 +j   0.27116
75           0          0.27144 /_  -87.4 =   0.012353 +j  -0.27116

ELEMENT = "Load.S76A"
76           1          0.47598 /_  148.7 =   -0.40665 +j   0.24736
76           2          0.47598 /_  -31.3 =    0.40665 +j  -0.24736

ELEMENT = "Load.S76B"
76           2          0.31018 /_  155.6 =   -0.28251 +j   0.12807
76           3          0.31018 /_  -24.4 =    0.28251 +j  -0.12807

ELEMENT = "Load.S76C"
76           3          0.31018 /_  154.0 =    -0.2788 +j   0.13596
76           1          0.31018 /_  -26.0 =     0.2788 +j  -0.13596

ELEMENT = "Load.S77B"
77           2          0.26739 /_   92.9 =  -0.013618 +j   0.26705
77           0          0.26739 /_  -87.1 =   0.013618 +j  -0.26705

ELEMENT = "Load.S79A"
79           1          0.29162 /_   88.2 =  0.0093064 +j   0.29147
79           0          0.29162 /_  -91.8 =  -0.0093064 +j  -0.29147

ELEMENT = "Load.S80B"
80           2          0.26684 /_   92.7 =   -0.01256 +j   0.26655
80           0          0.26684 /_  -87.3 =    0.01256 +j  -0.26655

ELEMENT = "Load.S82A"
82           1          0.26686 /_   87.8 =   0.010061 +j   0.26667
82           0          0.26686 /_  -92.2 =  -0.010061 +j  -0.26667

ELEMENT = "Load.S83C"
83           3           0.1345 /_   91.8 =  -0.0042456 +j   0.13444
83           0           0.1345 /_  -88.2 =  0.0042456 +j  -0.13444

ELEMENT = "Load.S84C"
84           3          0.13505 /_   91.9 =  -0.0044389 +j   0.13497
84           0          0.13505 /_  -88.1 =  0.0044389 +j  -0.13497

ELEMENT = "Load.S85C"
85           3          0.27041 /_   91.8 =  -0.0085647 +j   0.27027
85           0          0.27041 /_  -88.2 =  0.0085647 +j  -0.27027

ELEMENT = "Load.S86B"
86           2          0.13407 /_   92.7 =  -0.0062575 +j   0.13393
86           0          0.13407 /_  -87.3 =  0.0062575 +j  -0.13393

ELEMENT = "Load.S87B"
87           2          0.26834 /_   92.4 =  -0.011291 +j   0.26811
87           0          0.26834 /_  -87.6 =   0.011291 +j  -0.26811

ELEMENT = "Load.S88A"
88           1          0.26856 /_   88.2 =  0.0083447 +j   0.26843
88           0          0.26856 /_  -91.8 =  -0.0083447 +j  -0.26843

ELEMENT = "Load.S90B"
90           2          0.27951 /_   92.1 =  -0.010459 +j   0.27931
90           0          0.27951 /_  -87.9 =   0.010459 +j  -0.27931

ELEMENT = "Load.S92C"
92           3          0.26932 /_   92.4 =  -0.011057 +j   0.26909
92           0          0.26932 /_  -87.6 =   0.011057 +j  -0.26909

ELEMENT = "Load.S94A"
94           1          0.26898 /_   88.3 =  0.0080955 +j   0.26885
94           0          0.26898 /_  -91.7 =  -0.0080955 +j  -0.26885

ELEMENT = "Load.S95B"
95           2          0.13432 /_   92.1 =  -0.0050039 +j   0.13422
95           0          0.13432 /_  -87.9 =  0.0050039 +j  -0.13422

ELEMENT = "Load.S96B"
96           2          0.13435 /_   92.1 =  -0.0049717 +j   0.13426
96           0          0.13435 /_  -87.9 =  0.0049717 +j  -0.13426

ELEMENT = "Load.S98A"
98           1          0.26859 /_   88.8 =  0.0058173 +j   0.26853
98           0          0.26859 /_  -91.2 =  -0.0058173 +j  -0.26853

ELEMENT = "Load.S99B"
99           2          0.26776 /_   93.6 =  -0.016919 +j   0.26722
99           0          0.26776 /_  -86.4 =   0.016919 +j  -0.26722

ELEMENT = "Load.S100C"
100          3          0.28881 /_   93.0 =  -0.015042 +j   0.28842
100          0          0.28881 /_  -87.0 =   0.015042 +j  -0.28842

ELEMENT = "Load.S102C"
102          3          0.13539 /_   93.1 =  -0.0072694 +j   0.13519
102          0          0.13539 /_  -86.9 =  0.0072694 +j  -0.13519

ELEMENT = "Load.S103C"
103          3          0.27121 /_   93.0 =  -0.014116 +j   0.27085
103          0          0.27121 /_  -87.0 =   0.014116 +j  -0.27085

ELEMENT = "Load.S104C"
104          3          0.27169 /_   92.9 =  -0.013658 +j   0.27134
104          0          0.27169 /_  -87.1 =   0.013658 +j  -0.27134

ELEMENT = "Load.S106B"
106          2          0.26788 /_   93.4 =  -0.016053 +j    0.2674
106          0          0.26788 /_  -86.6 =   0.016053 +j   -0.2674

ELEMENT = "Load.S107B"
107          2          0.26825 /_   93.4 =  -0.015693 +j   0.26779
107          0          0.26825 /_  -86.6 =   0.015693 +j  -0.26779

ELEMENT = "Load.S109A"
109          1          0.27055 /_   88.1 =  0.0089427 +j    0.2704
109          0          0.27055 /_  -91.9 =  -0.0089427 +j   -0.2704

ELEMENT = "Load.S111A"
111          1          0.13563 /_   88.0 =  0.0048466 +j   0.13554
111          0          0.13563 /_  -92.0 =  -0.0048466 +j  -0.13554

ELEMENT = "Load.S112A"
112          1          0.13975 /_   88.0 =  0.0049839 +j   0.13967
112          0          0.13975 /_  -92.0 =  -0.0049839 +j  -0.13967

ELEMENT = "Load.S113A"
...